Version 4
SHEET 1 1272 680
WIRE 688 -32 640 -32
WIRE 832 -32 768 -32
WIRE 0 -16 -48 -16
WIRE 144 -16 80 -16
WIRE 160 -16 144 -16
WIRE 240 -16 240 -80
WIRE 240 -16 224 -16
WIRE 272 -16 240 -16
WIRE 144 0 144 -16
WIRE 560 80 560 48
WIRE 560 80 480 80
WIRE 640 80 640 -32
WIRE 640 80 560 80
WIRE 688 80 640 80
WIRE -48 96 -48 -16
WIRE -48 96 -128 96
WIRE 0 96 -48 96
WIRE 832 96 832 -32
WIRE 832 96 752 96
WIRE 864 96 832 96
WIRE 144 112 144 80
WIRE 144 112 64 112
WIRE 176 112 144 112
WIRE 688 112 640 112
WIRE 0 128 -48 128
WIRE -528 144 -576 144
WIRE 640 176 640 112
WIRE -48 192 -48 128
WIRE 688 400 640 400
WIRE 832 400 768 400
WIRE -32 416 -48 416
WIRE 64 416 48 416
WIRE 160 416 144 416
WIRE 240 416 240 352
WIRE 240 416 224 416
WIRE 272 416 240 416
WIRE 144 432 144 416
WIRE 560 512 560 480
WIRE 560 512 480 512
WIRE 640 512 640 400
WIRE 640 512 560 512
WIRE 688 512 640 512
WIRE -48 528 -48 416
WIRE -48 528 -128 528
WIRE 0 528 -48 528
WIRE 832 528 832 400
WIRE 832 528 752 528
WIRE 864 528 832 528
WIRE 144 544 144 512
WIRE 144 544 64 544
WIRE 176 544 144 544
WIRE 688 544 640 544
WIRE 0 560 -48 560
WIRE 640 608 640 544
WIRE -48 624 -48 560
FLAG -576 144 0
FLAG -528 224 Vee
FLAG -528 64 Vcc
FLAG -48 192 0
FLAG -128 160 0
FLAG 272 64 0
FLAG 32 144 Vee
FLAG 32 80 Vcc
FLAG 176 112 out_LASC
FLAG 240 -80 x_SC
FLAG 640 176 0
FLAG 720 128 Vee
FLAG 720 64 Vcc
FLAG 864 96 out_LCSC
FLAG 480 160 0
FLAG 560 48 in
FLAG 560 144 0
FLAG -48 624 0
FLAG -128 592 0
FLAG 272 496 0
FLAG 32 576 Vee
FLAG 32 512 Vcc
FLAG 176 544 out_LAC
FLAG 240 352 x_C
FLAG 640 608 0
FLAG 720 560 Vee
FLAG 720 496 Vcc
FLAG 864 528 out_LCC
FLAG 480 592 0
FLAG 560 480 in
FLAG 560 576 0
FLAG 64 496 0
SYMBOL voltage -528 48 R0
WINDOW 123 0 0 Left 0
WINDOW 39 0 0 Left 0
SYMATTR InstName V1
SYMATTR Value 12
SYMBOL voltage -528 128 R0
WINDOW 123 0 0 Left 0
WINDOW 39 0 0 Left 0
SYMATTR InstName V2
SYMATTR Value 12
SYMBOL cap -144 96 R0
SYMATTR InstName C1
SYMATTR Value 50p
SYMBOL res 96 -32 R90
WINDOW 0 0 56 VBottom 2
WINDOW 3 32 56 VTop 2
SYMATTR InstName R1
SYMATTR Value 10Meg
SYMBOL ind 128 -16 R0
SYMATTR InstName Lx
SYMATTR Value 1T
SYMBOL cap 224 -32 R90
WINDOW 0 0 32 VBottom 2
WINDOW 3 32 32 VTop 2
SYMATTR InstName Cx
SYMATTR Value 1T
SYMBOL voltage 272 -32 R0
WINDOW 123 24 124 Left 2
WINDOW 39 0 0 Left 0
SYMATTR Value2 AC 1
SYMATTR InstName V3
SYMATTR Value ""
SYMBOL AutoGenerated\\TL081 32 112 R0
SYMATTR InstName U2
SYMATTR Value OPAx209
SYMBOL cap 544 80 R0
SYMATTR InstName C2
SYMATTR Value 50p
SYMBOL res 784 -48 R90
WINDOW 0 0 56 VBottom 2
WINDOW 3 32 56 VTop 2
SYMATTR InstName R2
SYMATTR Value 10Meg
SYMBOL AutoGenerated\\TL081 720 96 R0
SYMATTR InstName U1
SYMATTR Value OPAx209
SYMBOL current 480 160 R180
WINDOW 0 24 80 Left 2
WINDOW 3 24 0 Left 2
WINDOW 123 -46 -40 Left 2
WINDOW 39 0 0 Left 0
SYMATTR InstName I1
SYMATTR Value ""
SYMATTR Value2 AC 100n
SYMBOL cap -144 528 R0
SYMATTR InstName C3
SYMATTR Value 50p
SYMBOL res 64 400 R90
WINDOW 0 0 56 VBottom 2
WINDOW 3 32 56 VTop 2
SYMATTR InstName R3
SYMATTR Value 100k
SYMBOL ind 128 416 R0
SYMATTR InstName Lx1
SYMATTR Value 1T
SYMBOL cap 224 400 R90
WINDOW 0 0 32 VBottom 2
WINDOW 3 32 32 VTop 2
SYMATTR InstName Cx1
SYMATTR Value 1T
SYMBOL voltage 272 400 R0
WINDOW 123 24 124 Left 2
WINDOW 39 0 0 Left 0
SYMATTR Value2 AC 1
SYMATTR InstName V4
SYMATTR Value ""
SYMBOL AutoGenerated\\TL081 32 544 R0
SYMATTR InstName U3
SYMATTR Value OPAx209
SYMBOL cap 544 512 R0
SYMATTR InstName C4
SYMATTR Value 50p
SYMBOL res 784 384 R90
WINDOW 0 0 56 VBottom 2
WINDOW 3 32 56 VTop 2
SYMATTR InstName R4
SYMATTR Value 10Meg
SYMBOL AutoGenerated\\TL081 720 528 R0
SYMATTR InstName U4
SYMATTR Value OPAx209
SYMBOL current 480 592 R180
WINDOW 0 24 80 Left 2
WINDOW 3 24 0 Left 2
WINDOW 123 -46 -40 Left 2
WINDOW 39 0 0 Left 0
SYMATTR InstName I2
SYMATTR Value ""
SYMATTR Value2 AC 100n
SYMBOL res 160 400 R90
WINDOW 0 0 56 VBottom 2
WINDOW 3 32 56 VTop 2
SYMATTR InstName R5
SYMATTR Value 12k
SYMBOL res 48 400 R0
SYMATTR InstName R6
SYMATTR Value 120
TEXT -608 392 Left 2 !.ac dec 100 0.1 100G uic
TEXT -608 368 Left 2 !.lib OPAx209.lib
TEXT -24 -128 Left 2 ;Ganancia lazo abierto
TEXT 8 -104 Left 2 ;(sin compensar)
TEXT 600 -96 Left 2 ;(sin compensar)
TEXT 560 -128 Left 2 ;Ganancia lazo cerrado
TEXT -608 328 Left 2 ;Directivas
TEXT -576 -8 Left 2 ;Fuente
TEXT -24 304 Left 2 ;Ganancia lazo abierto
TEXT 8 328 Left 2 ;(compensado)
TEXT 600 336 Left 2 ;(compensado)
TEXT 560 304 Left 2 ;Ganancia lazo cerrado
RECTANGLE Normal 368 240 -176 -144 2
RECTANGLE Normal 976 240 400 -144 2
RECTANGLE Normal -368 448 -624 304 2
RECTANGLE Normal -448 288 -624 -32 2
RECTANGLE Normal 368 672 -176 288 2
RECTANGLE Normal 976 672 400 288 2
