Version 4
SHEET 1 1272 680
WIRE 224 32 176 32
WIRE 368 32 304 32
WIRE 384 32 368 32
WIRE 464 32 464 -32
WIRE 464 32 448 32
WIRE 496 32 464 32
WIRE 368 48 368 32
WIRE 1024 48 976 48
WIRE 1168 48 1104 48
WIRE -672 144 -720 144
WIRE 176 144 176 32
WIRE 176 144 96 144
WIRE 224 144 176 144
WIRE 368 160 368 128
WIRE 368 160 288 160
WIRE 400 160 368 160
WIRE 896 160 896 128
WIRE 896 160 816 160
WIRE 976 160 976 48
WIRE 976 160 896 160
WIRE 1024 160 976 160
WIRE 224 176 176 176
WIRE 1168 176 1168 48
WIRE 1168 176 1088 176
WIRE 1200 176 1168 176
WIRE 1024 192 976 192
WIRE 176 240 176 176
WIRE 976 256 976 192
FLAG -720 144 0
FLAG -672 224 Vee
FLAG -672 64 Vcc
FLAG 176 240 0
FLAG 96 208 0
FLAG 496 112 0
FLAG 256 192 Vee
FLAG 256 128 Vcc
FLAG 400 160 out
FLAG 464 -32 x
FLAG 976 256 0
FLAG 1056 208 Vee
FLAG 1056 144 Vcc
FLAG 1200 176 out2
FLAG 816 240 0
FLAG 896 128 in
FLAG 896 224 0
SYMBOL voltage -672 48 R0
WINDOW 123 0 0 Left 0
WINDOW 39 0 0 Left 0
SYMATTR InstName V1
SYMATTR Value 12
SYMBOL voltage -672 128 R0
WINDOW 123 0 0 Left 0
WINDOW 39 0 0 Left 0
SYMATTR InstName V2
SYMATTR Value 12
SYMBOL cap 80 144 R0
SYMATTR InstName C1
SYMATTR Value 50p
SYMBOL res 320 16 R90
WINDOW 0 0 56 VBottom 2
WINDOW 3 32 56 VTop 2
SYMATTR InstName R1
SYMATTR Value 10Meg
SYMBOL ind 352 32 R0
SYMATTR InstName Lx
SYMATTR Value 1T
SYMBOL cap 448 16 R90
WINDOW 0 0 32 VBottom 2
WINDOW 3 32 32 VTop 2
SYMATTR InstName Cx
SYMATTR Value 1T
SYMBOL voltage 496 16 R0
WINDOW 123 24 124 Left 2
WINDOW 39 0 0 Left 0
SYMATTR InstName V3
SYMATTR Value ""
SYMATTR Value2 AC 1
SYMBOL AutoGenerated\\TL081 256 160 R0
SYMATTR InstName U2
SYMATTR Value OPAx209
SYMBOL cap 880 160 R0
SYMATTR InstName C2
SYMATTR Value 50p
SYMBOL res 1120 32 R90
WINDOW 0 0 56 VBottom 2
WINDOW 3 32 56 VTop 2
SYMATTR InstName R2
SYMATTR Value 10Meg
SYMBOL AutoGenerated\\TL081 1056 176 R0
SYMATTR InstName U1
SYMATTR Value OPAx209
SYMBOL current 816 240 R180
WINDOW 0 24 80 Left 2
WINDOW 3 24 0 Left 2
WINDOW 123 24 -28 Left 2
WINDOW 39 0 0 Left 0
SYMATTR InstName I1
SYMATTR Value ""
SYMATTR Value2 AC 100n
TEXT -740 314 Left 2 !.ac dec 100 100 100G
TEXT 224 -104 Left 2 !.lib OPAx209.lib
