Version 4
SHEET 1 1264 680
WIRE 240 -48 112 -48
WIRE 352 -48 240 -48
WIRE 112 -16 112 -48
WIRE 352 -16 352 -48
WIRE 240 0 240 -48
WIRE 992 0 928 0
WIRE 1104 0 1072 0
WIRE -624 96 -656 96
WIRE -48 96 -128 96
WIRE 112 96 112 64
WIRE 112 96 32 96
WIRE 224 96 224 64
WIRE 224 96 112 96
WIRE 256 96 256 64
WIRE 352 96 352 64
WIRE 352 96 256 96
WIRE 688 112 608 112
WIRE 832 112 688 112
WIRE 928 112 928 0
WIRE 928 112 832 112
WIRE 976 112 928 112
WIRE 112 128 112 96
WIRE 352 128 352 96
WIRE 1104 128 1104 0
WIRE 1104 128 1040 128
WIRE 1168 128 1104 128
WIRE -128 144 -128 96
WIRE 688 144 688 112
WIRE 832 144 832 112
WIRE 976 144 944 144
WIRE 944 176 944 144
WIRE -128 256 -128 224
WIRE 352 256 352 208
WIRE 688 256 688 224
WIRE 832 256 832 208
FLAG 352 256 0
FLAG -128 256 0
FLAG -656 96 0
FLAG -624 16 Vcc
FLAG -624 176 Vee
FLAG 272 32 Vcc
FLAG 208 32 Vee
FLAG 112 128 load
IOPIN 112 128 Out
FLAG 608 112 load
IOPIN 608 112 In
FLAG 688 256 0
FLAG 832 256 0
FLAG 944 176 0
FLAG 1008 160 Vee
FLAG 1008 96 Vcc
FLAG 1168 128 out
IOPIN 1168 128 Out
SYMBOL AutoGenerated\\TL081 240 32 M270
SYMATTR InstName U1
SYMATTR Value TL081
SYMBOL res 336 -32 R0
SYMATTR InstName R1
SYMATTR Value {R}
SYMBOL res 96 -32 R0
SYMATTR InstName R2
SYMATTR Value {R}
SYMBOL res 336 112 R0
SYMATTR InstName R3
SYMATTR Value {R}
SYMBOL res 48 80 R90
WINDOW 0 0 56 VBottom 2
WINDOW 3 32 56 VTop 2
SYMATTR InstName R5
SYMATTR Value {R}
SYMBOL voltage -128 128 R0
WINDOW 123 0 0 Left 0
WINDOW 39 0 0 Left 0
SYMATTR InstName V1
SYMATTR Value 1
SYMBOL voltage -624 0 R0
WINDOW 123 0 0 Left 0
WINDOW 39 0 0 Left 0
SYMATTR InstName V2
SYMATTR Value 12
SYMBOL voltage -624 80 R0
WINDOW 123 0 0 Left 0
WINDOW 39 0 0 Left 0
SYMATTR InstName V3
SYMATTR Value 12
SYMBOL res 672 128 R0
SYMATTR InstName R4
SYMATTR Value 1000Meg
SYMBOL cap 816 144 R0
SYMATTR InstName C1
SYMATTR Value 50p
SYMBOL res 1088 -16 R90
WINDOW 0 0 56 VBottom 2
WINDOW 3 32 56 VTop 2
SYMATTR InstName Rf
SYMATTR Value 10Meg
SYMBOL AutoGenerated\\TL081 1008 128 R0
SYMATTR InstName U2
SYMATTR Value OPAx209
TEXT -720 304 Left 2 !.param R=10Meg
TEXT -676 280 Left 2 !.tran 10m
TEXT -696 336 Left 2 !.lib OPAx209.lib
TEXT -32 -88 Left 2 ;Fuente de corriente Howlland
TEXT 712 -80 Left 2 ;Amplificador de corriente
RECTANGLE Normal 1248 288 528 -112 2
RECTANGLE Normal 464 288 -176 -112 2
