Version 4
SHEET 1 2156 680
WIRE 240 -48 112 -48
WIRE 352 -48 240 -48
WIRE 112 -16 112 -48
WIRE 352 -16 352 -48
WIRE 240 0 240 -48
WIRE 928 0 864 0
WIRE 1040 0 1008 0
WIRE -624 96 -656 96
WIRE -48 96 -128 96
WIRE 112 96 112 64
WIRE 112 96 32 96
WIRE 224 96 224 64
WIRE 224 96 112 96
WIRE 256 96 256 64
WIRE 352 96 352 64
WIRE 352 96 256 96
WIRE 768 112 688 112
WIRE 864 112 864 0
WIRE 864 112 768 112
WIRE 912 112 864 112
WIRE 112 128 112 96
WIRE 352 128 352 96
WIRE 1040 128 1040 0
WIRE 1040 128 976 128
WIRE 1104 128 1040 128
WIRE -128 144 -128 96
WIRE 768 144 768 112
WIRE 912 144 880 144
WIRE 880 176 880 144
WIRE -128 256 -128 224
WIRE 352 256 352 208
WIRE 768 256 768 208
FLAG 352 256 0
FLAG -128 256 0
FLAG -656 96 0
FLAG -624 16 Vcc
FLAG -624 176 Vee
FLAG 272 32 Vcc
FLAG 208 32 Vee
FLAG 112 128 load
IOPIN 112 128 Out
FLAG 768 256 0
FLAG 880 176 0
FLAG 944 160 Vee
FLAG 944 96 Vcc
FLAG 1104 128 out
IOPIN 1104 128 Out
FLAG 688 112 load
IOPIN 688 112 In
SYMBOL AutoGenerated\\TL081 240 32 M270
SYMATTR InstName U1
SYMATTR Value TL081
SYMBOL res 336 -32 R0
SYMATTR InstName R1
SYMATTR Value {R}
SYMBOL res 96 -32 R0
SYMATTR InstName R2
SYMATTR Value {R}
SYMBOL res 336 112 R0
SYMATTR InstName R3
SYMATTR Value {R}
SYMBOL res 48 80 R90
WINDOW 0 0 56 VBottom 2
WINDOW 3 32 56 VTop 2
SYMATTR InstName R5
SYMATTR Value {R}
SYMBOL voltage -128 128 R0
WINDOW 123 0 0 Left 0
WINDOW 39 0 0 Left 0
SYMATTR InstName V1
SYMATTR Value PULSE(0 1 0 1p 1p 9m 10m)
SYMBOL voltage -624 0 R0
WINDOW 123 0 0 Left 0
WINDOW 39 0 0 Left 0
SYMATTR InstName V2
SYMATTR Value 12
SYMBOL voltage -624 80 R0
WINDOW 123 0 0 Left 0
WINDOW 39 0 0 Left 0
SYMATTR InstName V3
SYMATTR Value 12
SYMBOL cap 752 144 R0
SYMATTR InstName C1
SYMATTR Value 50p
SYMBOL res 1024 -16 R90
WINDOW 0 0 56 VBottom 2
WINDOW 3 32 56 VTop 2
SYMATTR InstName Rf
SYMATTR Value 10Meg
SYMBOL AutoGenerated\\TL081 944 128 R0
SYMATTR InstName U2
SYMATTR Value OPAx209
TEXT -720 304 Left 2 !.param R=10Meg
TEXT -680 280 Left 2 !.tran 10m
TEXT -696 336 Left 2 !.lib OPAx209.lib
TEXT -32 -88 Left 2 ;Fuente de corriente Howlland
TEXT 744 -88 Left 2 ;Amplificador de corriente
RECTANGLE Normal 1248 288 528 -112 2
RECTANGLE Normal 464 288 -176 -112 2
