Version 4
SHEET 1 1000 756
WIRE 176 16 96 16
WIRE 288 16 176 16
WIRE 96 48 96 16
WIRE 288 48 288 16
WIRE 176 112 176 16
WIRE -208 128 -320 128
WIRE 144 144 128 144
WIRE 224 144 208 144
WIRE -320 160 -320 128
WIRE -16 208 -64 208
WIRE 96 208 96 128
WIRE 96 208 64 208
WIRE 160 208 160 176
WIRE 160 208 96 208
WIRE 192 208 192 176
WIRE 288 208 288 128
WIRE 288 208 192 208
WIRE -64 224 -64 208
WIRE 288 224 288 208
WIRE -320 272 -320 240
WIRE -320 272 -448 272
WIRE -448 304 -448 272
WIRE -320 304 -320 272
WIRE -64 320 -64 304
WIRE 288 320 288 304
WIRE 288 320 224 320
WIRE 224 352 224 320
WIRE -320 432 -320 384
WIRE -208 432 -320 432
WIRE 304 448 224 448
WIRE 464 448 384 448
WIRE 704 448 608 448
WIRE 864 448 784 448
WIRE 96 608 96 208
WIRE 224 608 224 448
WIRE 224 608 96 608
WIRE 320 608 224 608
WIRE 464 624 464 448
WIRE 464 624 384 624
WIRE 496 624 464 624
WIRE 608 624 608 448
WIRE 608 624 576 624
WIRE 656 624 608 624
WIRE 96 640 96 608
WIRE 320 640 224 640
WIRE 864 640 864 448
WIRE 864 640 720 640
WIRE 928 640 864 640
WIRE 656 656 624 656
WIRE 96 736 96 704
WIRE 224 736 224 640
WIRE 624 736 624 656
FLAG 224 352 0
FLAG 224 144 V+
FLAG 176 16 Vo
FLAG -208 128 V+
FLAG -208 432 V-
FLAG -448 304 0
FLAG 128 144 V-
FLAG 352 592 V+
FLAG 352 656 V-
FLAG 224 736 0
FLAG 96 736 0
FLAG -64 320 0
FLAG 624 736 0
FLAG 688 608 V+
FLAG 688 672 V-
FLAG 928 640 Vout
SYMBOL AutoGenerated\\TL081 176 144 M270
WINDOW 0 -18 -49 VBottom 1
WINDOW 3 -53 -48 VTop 1
SYMATTR InstName U1
SYMBOL voltage -64 208 R0
WINDOW 123 0 0 Left 0
WINDOW 39 0 0 Left 0
SYMATTR InstName V1
SYMATTR Value PULSE(0 5 0 1p 1p 9m 10m)
SYMBOL res 80 192 R90
WINDOW 0 0 56 VBottom 2
WINDOW 3 32 56 VTop 2
SYMATTR InstName R1
SYMATTR Value {R}
SYMBOL res 304 320 R180
WINDOW 0 -38 72 Left 2
WINDOW 3 -49 39 Left 2
SYMATTR InstName R2
SYMATTR Value 10k
SYMBOL res 304 144 R180
WINDOW 0 -38 75 Left 2
WINDOW 3 -44 39 Left 2
SYMATTR InstName R3
SYMATTR Value 10k
SYMBOL res 112 144 R180
WINDOW 0 36 76 Left 2
WINDOW 3 36 40 Left 2
SYMATTR InstName R4
SYMATTR Value {R}
SYMBOL voltage -320 144 R0
WINDOW 123 0 0 Left 0
WINDOW 39 0 0 Left 0
SYMATTR InstName Vf1
SYMATTR Value 12
SYMBOL voltage -320 288 R0
WINDOW 123 0 0 Left 0
WINDOW 39 0 0 Left 0
SYMATTR InstName Vf2
SYMATTR Value 12
SYMBOL AutoGenerated\\TL081 352 624 R0
SYMATTR InstName U2
SYMBOL res 400 432 R90
WINDOW 0 0 56 VBottom 2
WINDOW 3 32 56 VTop 2
SYMATTR InstName R5
SYMATTR Value 10k
SYMBOL cap 80 640 R0
SYMATTR InstName C1
SYMATTR Value 10n
SYMBOL res 592 608 R90
WINDOW 0 0 56 VBottom 2
WINDOW 3 32 56 VTop 2
SYMATTR InstName R6
SYMATTR Value 10K
SYMBOL AutoGenerated\\TL081 688 640 R0
SYMATTR InstName U3
SYMBOL res 800 432 R90
WINDOW 0 0 56 VBottom 2
WINDOW 3 32 56 VTop 2
SYMATTR InstName R7
SYMATTR Value 10K
TEXT -312 480 Left 2 !.tran 10m
TEXT -16 -56 Left 2 ;Fuente de corriente constante
TEXT -312 520 Left 2 !.PARAM R=10K
