Version 4
SHEET 1 1652 728
WIRE 1328 -48 1280 -48
WIRE 1472 -48 1408 -48
WIRE 0 -16 -48 -16
WIRE 144 -16 80 -16
WIRE 160 -16 144 -16
WIRE 240 -16 240 -80
WIRE 240 -16 224 -16
WIRE 272 -16 240 -16
WIRE 144 0 144 -16
WIRE 1200 64 1200 32
WIRE 1200 64 1120 64
WIRE 1280 64 1280 -48
WIRE 1280 64 1200 64
WIRE 1328 64 1280 64
WIRE 1472 80 1472 -48
WIRE 1472 80 1392 80
WIRE 1504 80 1472 80
WIRE -48 96 -48 -16
WIRE -48 96 -128 96
WIRE 0 96 -48 96
WIRE 1328 96 1280 96
WIRE 144 112 144 80
WIRE 144 112 64 112
WIRE 176 112 144 112
WIRE 0 128 -48 128
WIRE -528 144 -576 144
WIRE 1280 160 1280 96
WIRE -48 192 -48 128
WIRE 1536 336 1392 336
WIRE 1392 352 1392 336
WIRE 1536 352 1536 336
WIRE -32 416 -48 416
WIRE 64 416 48 416
WIRE 160 416 144 416
WIRE 240 416 240 352
WIRE 240 416 224 416
WIRE 272 416 240 416
WIRE 144 432 144 416
WIRE 1392 448 1392 432
WIRE 1392 448 1376 448
WIRE 1408 448 1392 448
WIRE -48 528 -48 416
WIRE -48 528 -128 528
WIRE 0 528 -48 528
WIRE 144 544 144 512
WIRE 144 544 64 544
WIRE 176 544 144 544
WIRE 1216 544 1216 512
WIRE 1216 544 1136 544
WIRE 1296 544 1296 448
WIRE 1296 544 1216 544
WIRE 1344 544 1296 544
WIRE 0 560 -48 560
WIRE 1488 560 1488 448
WIRE 1488 560 1408 560
WIRE 1520 560 1488 560
WIRE 1344 576 1296 576
WIRE -48 624 -48 560
WIRE 1296 640 1296 576
FLAG -576 144 0
FLAG -528 224 Vee
FLAG -528 64 Vcc
FLAG -48 192 0
FLAG -128 160 0
FLAG 272 64 0
FLAG 32 144 Vee
FLAG 32 80 Vcc
FLAG 176 112 out_LASC
FLAG 240 -80 x_SC
FLAG 1280 160 0
FLAG 1360 112 Vee
FLAG 1360 48 Vcc
FLAG 1504 80 out_LCSC
FLAG 1120 144 0
FLAG 1200 32 in
FLAG 1200 128 0
FLAG -48 624 0
FLAG -128 592 0
FLAG 272 496 0
FLAG 32 576 Vee
FLAG 32 512 Vcc
FLAG 176 544 out_LAC
FLAG 240 352 x_C
FLAG 1296 640 0
FLAG 1376 592 Vee
FLAG 1376 528 Vcc
FLAG 1520 560 out_LCC
FLAG 1136 624 0
FLAG 1216 512 in
FLAG 1216 608 0
FLAG 64 496 0
FLAG 1536 352 0
SYMBOL voltage -528 48 R0
WINDOW 123 0 0 Left 0
WINDOW 39 0 0 Left 0
SYMATTR InstName V1
SYMATTR Value 12
SYMBOL voltage -528 128 R0
WINDOW 123 0 0 Left 0
WINDOW 39 0 0 Left 0
SYMATTR InstName V2
SYMATTR Value 12
SYMBOL cap -144 96 R0
SYMATTR InstName C1
SYMATTR Value 50p
SYMBOL res 96 -32 R90
WINDOW 0 0 56 VBottom 2
WINDOW 3 32 56 VTop 2
SYMATTR InstName R1
SYMATTR Value 10Meg
SYMBOL ind 128 -16 R0
SYMATTR InstName Lx
SYMATTR Value 1T
SYMBOL cap 224 -32 R90
WINDOW 0 0 32 VBottom 2
WINDOW 3 32 32 VTop 2
SYMATTR InstName Cx
SYMATTR Value 1T
SYMBOL voltage 272 -32 R0
WINDOW 123 24 124 Left 2
WINDOW 39 0 0 Left 0
SYMATTR Value2 AC 1
SYMATTR InstName V3
SYMATTR Value ""
SYMBOL AutoGenerated\\TL081 32 112 R0
SYMATTR InstName U2
SYMATTR Value OPAx209
SYMBOL cap 1184 64 R0
SYMATTR InstName C2
SYMATTR Value 50p
SYMBOL res 1424 -64 R90
WINDOW 0 0 56 VBottom 2
WINDOW 3 28 57 VTop 2
SYMATTR InstName R2
SYMATTR Value 10Meg
SYMBOL AutoGenerated\\TL081 1360 80 R0
WINDOW 0 41 10 Bottom 0
SYMATTR InstName U1
SYMATTR Value OPAx209
SYMBOL current 1120 144 R180
WINDOW 0 24 80 Left 2
WINDOW 3 24 0 Left 2
WINDOW 123 -46 -40 Left 2
WINDOW 39 0 0 Left 0
SYMATTR InstName I1
SYMATTR Value ""
SYMATTR Value2 AC 100n
SYMBOL cap -144 528 R0
SYMATTR InstName C3
SYMATTR Value 50p
SYMBOL res 64 400 R90
WINDOW 0 0 56 VBottom 2
WINDOW 3 32 56 VTop 2
SYMATTR InstName R3
SYMATTR Value 100k
SYMBOL ind 128 416 R0
SYMATTR InstName Lx1
SYMATTR Value 1T
SYMBOL cap 224 400 R90
WINDOW 0 0 32 VBottom 2
WINDOW 3 32 32 VTop 2
SYMATTR InstName Cx1
SYMATTR Value 1T
SYMBOL voltage 272 400 R0
WINDOW 123 24 124 Left 2
WINDOW 39 0 0 Left 0
SYMATTR Value2 AC 1
SYMATTR InstName V4
SYMATTR Value ""
SYMBOL AutoGenerated\\TL081 32 544 R0
SYMATTR InstName U3
SYMATTR Value OPAx209
SYMBOL cap 1200 544 R0
SYMATTR InstName C4
SYMATTR Value 50p
SYMBOL AutoGenerated\\TL081 1376 560 R0
WINDOW 0 42 15 Bottom 0
SYMATTR InstName U4
SYMATTR Value OPAx209
SYMBOL current 1136 624 R180
WINDOW 0 24 80 Left 2
WINDOW 3 24 0 Left 2
WINDOW 123 -46 -40 Left 2
WINDOW 39 0 0 Left 0
SYMATTR InstName I2
SYMATTR Value ""
SYMATTR Value2 AC 100n
SYMBOL res 160 400 R90
WINDOW 0 0 56 VBottom 2
WINDOW 3 32 56 VTop 2
SYMATTR InstName R5
SYMATTR Value 12k
SYMBOL res 48 400 R0
SYMATTR InstName R6
SYMATTR Value 120
SYMBOL res 1392 432 R90
WINDOW 0 0 56 VBottom 2
WINDOW 3 32 56 VTop 2
SYMATTR InstName Rf
SYMATTR Value 100k
SYMBOL res 1504 432 R90
WINDOW 0 0 56 VBottom 2
WINDOW 3 32 56 VTop 2
SYMATTR InstName Ra
SYMATTR Value 12k
SYMBOL res 1376 336 R0
WINDOW 3 38 59 Left 2
SYMATTR InstName Rb
SYMATTR Value 120
TEXT -608 392 Left 2 !;ac dec 100 0.1 100G uic
TEXT -608 368 Left 2 !.lib OPAx209.lib
TEXT -24 -128 Left 2 ;Ganancia lazo abierto
TEXT 8 -104 Left 2 ;(sin compensar)
TEXT 1224 -120 Left 2 ;(sin compensar)
TEXT 1200 -144 Left 2 ;Ganancia lazo cerrado
TEXT -608 328 Left 2 ;Directivas
TEXT -576 -8 Left 2 ;Fuente
TEXT -24 304 Left 2 ;Ganancia lazo abierto
TEXT 8 328 Left 2 ;(compensado)
TEXT 1232 312 Left 2 ;(compensado)
TEXT 1192 288 Left 2 ;Ganancia lazo cerrado
TEXT 576 120 Left 2 !.ac dec 100 0.1 100G uic
RECTANGLE Normal 368 240 -176 -144 2
RECTANGLE Normal 1616 224 1040 -160 2
RECTANGLE Normal -368 448 -624 304 2
RECTANGLE Normal -448 288 -624 -32 2
RECTANGLE Normal 368 672 -176 288 2
RECTANGLE Normal 1616 688 1040 272 2
