Version 4
SHEET 1 880 680
WIRE 160 32 96 32
WIRE 288 32 240 32
WIRE -128 96 -128 64
WIRE 16 128 0 128
WIRE 96 128 96 32
WIRE 176 128 96 128
WIRE 0 144 0 128
WIRE 288 144 288 32
WIRE 288 144 240 144
WIRE 368 144 288 144
WIRE 384 144 368 144
WIRE 176 160 96 160
WIRE -128 208 -128 176
WIRE -128 208 -208 208
WIRE 96 208 96 160
WIRE -208 224 -208 208
WIRE -128 240 -128 208
WIRE 0 240 0 224
WIRE -128 352 -128 320
FLAG -208 224 0
FLAG -128 64 +Vcc
FLAG -128 352 -Vcc
FLAG 208 112 +Vcc
FLAG 208 176 -Vcc
FLAG 96 208 0
FLAG 0 240 0
FLAG 368 144 Vout
FLAG 0 128 Vin
SYMBOL AutoGenerated\\TL081 208 144 R0
WINDOW 0 47 25 Bottom 2
WINDOW 3 67 18 Top 2
SYMATTR InstName U1
SYMBOL voltage -128 80 R0
WINDOW 123 0 0 Left 0
WINDOW 39 0 0 Left 0
SYMATTR InstName V1
SYMATTR Value 10
SYMBOL voltage -128 224 R0
WINDOW 123 0 0 Left 0
WINDOW 39 0 0 Left 0
SYMATTR InstName V2
SYMATTR Value 10
SYMBOL Misc\\signal 0 128 R0
WINDOW 0 -39 10 Left 2
WINDOW 123 0 0 Left 0
WINDOW 39 0 0 Left 0
SYMATTR InstName V3
SYMATTR Value SINE(0 0.5 1K)
SYMBOL res 256 16 R90
WINDOW 0 0 56 VBottom 2
WINDOW 3 32 56 VTop 2
SYMATTR InstName R1
SYMATTR Value 1k
SYMBOL res 112 112 R90
WINDOW 0 0 56 VBottom 2
WINDOW 3 32 56 VTop 2
SYMATTR InstName R2
SYMATTR Value 1k
TEXT 52 298 Left 2 !.tran 1m
TEXT -136 -56 Left 2 ;Buffer inversor de ganancia unitaria
