Version 4
SHEET 1 880 680
WIRE 160 32 96 32
WIRE 288 32 240 32
WIRE -352 112 -352 80
WIRE -16 128 -32 128
WIRE 96 128 96 32
WIRE 96 128 64 128
WIRE 176 128 96 128
WIRE -32 144 -32 128
WIRE 288 144 288 32
WIRE 288 144 240 144
WIRE 336 144 288 144
WIRE 384 144 336 144
WIRE 176 160 96 160
WIRE 96 208 96 160
WIRE -352 224 -352 192
WIRE -352 224 -432 224
WIRE -432 240 -432 224
WIRE -32 240 -32 224
WIRE -352 256 -352 224
WIRE -352 368 -352 336
FLAG -432 240 0
FLAG -352 80 +Vcc
FLAG -352 368 -Vcc
FLAG 208 112 +Vcc
FLAG 208 176 -Vcc
FLAG 96 208 0
FLAG -32 240 0
FLAG 336 144 Vout
FLAG -32 128 Vin
SYMBOL AutoGenerated\\TL081 208 144 R0
WINDOW 0 47 25 Bottom 2
WINDOW 3 67 18 Top 2
SYMATTR InstName U1
SYMBOL voltage -352 96 R0
WINDOW 123 0 0 Left 0
WINDOW 39 0 0 Left 0
SYMATTR InstName V1
SYMATTR Value 10
SYMBOL voltage -352 240 R0
WINDOW 123 0 0 Left 0
WINDOW 39 0 0 Left 0
SYMATTR InstName V2
SYMATTR Value 10
SYMBOL Misc\\signal -32 128 R0
WINDOW 0 -39 10 Left 2
WINDOW 123 0 0 Left 0
WINDOW 39 0 0 Left 0
SYMATTR InstName V3
SYMATTR Value SINE(0 0.5 1K)
SYMBOL res 256 16 R90
WINDOW 0 0 56 VBottom 2
WINDOW 3 32 56 VTop 2
SYMATTR InstName R1
SYMATTR Value 10k
SYMBOL res 80 112 R90
WINDOW 0 0 56 VBottom 2
WINDOW 3 32 56 VTop 2
SYMATTR InstName R2
SYMATTR Value 10k
TEXT -320 16 Left 2 !.tran 1m
TEXT -48 -40 Left 2 ;Buffer inversor de ganancia unitaria
RECTANGLE Normal 400 272 -96 -16 2
