Version 4
SHEET 1 880 680
FLAG 96 192 0
FLAG 96 112 hola
SYMBOL current 96 192 R180
WINDOW 0 24 80 Left 2
WINDOW 3 24 0 Left 2
SYMATTR InstName I1
