Version 4
SHEET 1 1784 728
WIRE 32 144 16 144
WIRE -256 160 -320 160
WIRE -144 160 -176 160
WIRE -96 160 -144 160
WIRE -80 160 -96 160
WIRE -320 176 -320 160
WIRE -144 176 -144 160
WIRE 48 176 16 176
WIRE 128 176 48 176
WIRE 144 176 128 176
WIRE -320 272 -320 256
WIRE -144 272 -144 240
WIRE -144 272 -320 272
WIRE -16 272 -144 272
WIRE 48 272 48 240
WIRE 48 272 -16 272
WIRE 144 272 144 256
WIRE 144 272 48 272
WIRE -16 304 -16 272
WIRE 16 496 -16 496
WIRE -272 512 -352 512
WIRE -176 512 -192 512
WIRE -80 512 -176 512
WIRE -352 528 -352 512
WIRE -176 528 -176 512
WIRE 48 528 -16 528
WIRE 96 528 48 528
WIRE 144 528 96 528
WIRE 48 544 48 528
WIRE 144 544 144 528
WIRE -352 640 -352 608
WIRE -176 640 -176 592
WIRE -176 640 -352 640
WIRE -16 640 -176 640
WIRE 48 640 48 608
WIRE 48 640 -16 640
WIRE 144 640 144 624
WIRE 144 640 48 640
WIRE -16 672 -16 640
FLAG 128 176 Vout
FLAG -16 304 0
FLAG 96 528 Vout_2
FLAG -16 672 0
FLAG 16 496 0
FLAG 32 144 0
SYMBOL AutoGenerated\\7812 -48 160 R0
WINDOW 0 -36 -40 Bottom 2
WINDOW 3 34 -69 Top 2
SYMATTR InstName U1
SYMBOL voltage -320 160 R0
WINDOW 123 24 124 Left 2
WINDOW 39 0 0 Left 0
SYMATTR Value2 AC 1
SYMATTR InstName V1
SYMATTR Value 14
SYMBOL res -160 144 R90
WINDOW 0 0 56 VBottom 2
WINDOW 3 32 56 VTop 2
SYMATTR InstName R1
SYMATTR Value 50
SYMBOL cap -160 176 R0
SYMATTR InstName C1
SYMATTR Value 0.33µ
SYMBOL AutoGenerated\\LM7912 -48 512 R0
SYMATTR InstName U2
SYMBOL voltage -352 512 R0
WINDOW 123 10 141 Left 2
WINDOW 39 0 0 Left 0
WINDOW 3 13 96 Left 2
SYMATTR Value2 AC 1
SYMATTR InstName V2
SYMATTR Value -14
SYMBOL res -176 496 R90
WINDOW 0 0 56 VBottom 2
WINDOW 3 32 56 VTop 2
SYMATTR InstName R2
SYMATTR Value 50
SYMBOL cap -192 528 R0
SYMATTR InstName C2
SYMATTR Value 0.33µ
SYMBOL cap 32 176 R0
WINDOW 3 26 52 Left 2
SYMATTR Value 0.22µ
SYMATTR InstName C3
SYMBOL res 128 160 R0
SYMATTR InstName R4
SYMATTR Value 1k
SYMBOL cap 32 544 R0
WINDOW 0 40 16 Left 2
SYMATTR InstName C4
SYMATTR Value 0.22µ
SYMBOL res 128 528 R0
SYMATTR InstName R3
SYMATTR Value 1k
TEXT 96 112 Left 2 !;tran 5m
TEXT -320 -48 Left 2 ;Respuesta en Frecuencia de los reguladores
TEXT -176 40 Left 2 ;Regulador 7812
TEXT -176 408 Left 2 ;Regulador 7912
TEXT 0 48 Left 2 !.ac dec 100 1 1G
RECTANGLE Normal 224 336 -384 0 2
RECTANGLE Normal 224 704 -384 368 2
