Version 4
SHEET 1 996 680
WIRE 304 160 208 160
WIRE 96 176 -16 176
WIRE -16 192 -16 176
WIRE 416 192 208 192
WIRE 432 192 416 192
WIRE 672 192 608 192
WIRE 992 192 784 192
WIRE 672 208 672 192
WIRE 720 208 672 208
WIRE 608 224 608 192
WIRE 848 224 784 224
WIRE -16 304 -16 272
WIRE 80 304 -16 304
WIRE 304 304 304 160
WIRE 304 304 80 304
WIRE 80 320 80 304
WIRE 608 336 608 304
WIRE 656 336 608 336
WIRE 992 336 992 192
WIRE 992 336 656 336
FLAG 80 320 0
FLAG 416 192 Vout
FLAG 656 336 0
FLAG 848 224 Vout_2
SYMBOL AutoGenerated\\7812 144 176 R0
SYMATTR InstName U1
SYMBOL voltage -16 176 R0
WINDOW 123 0 0 Left 0
WINDOW 39 0 0 Left 0
SYMATTR InstName V1
SYMATTR Value 14
SYMBOL AutoGenerated\\LM7912 752 208 R0
SYMATTR InstName U2
SYMBOL voltage 608 208 R0
WINDOW 123 0 0 Left 0
WINDOW 39 0 0 Left 0
SYMATTR InstName V2
SYMATTR Value -14
TEXT -50 344 Left 2 !.tran 10m
