Version 4
SHEET 1 996 680
WIRE 576 -80 480 -80
WIRE 368 -64 256 -64
WIRE 256 -48 256 -64
WIRE 688 -48 480 -48
WIRE 704 -48 688 -48
WIRE 256 64 256 32
WIRE 352 64 256 64
WIRE 576 64 576 -80
WIRE 576 64 352 64
WIRE 352 80 352 64
WIRE 624 288 416 288
WIRE 352 304 240 304
WIRE 240 320 240 304
WIRE 688 320 416 320
WIRE 704 320 688 320
WIRE 240 432 240 400
WIRE 288 432 240 432
WIRE 624 432 624 288
WIRE 624 432 288 432
FLAG 352 80 0
FLAG 688 -48 Vout
FLAG 288 432 0
FLAG 688 320 Vout_2
SYMBOL AutoGenerated\\7812 416 -64 R0
SYMATTR InstName U1
SYMBOL voltage 256 -64 R0
WINDOW 123 0 0 Left 0
WINDOW 39 0 0 Left 0
SYMATTR InstName V1
SYMATTR Value 14
SYMBOL AutoGenerated\\LM7912 384 304 R0
SYMATTR InstName U2
SYMBOL voltage 240 304 R0
WINDOW 123 0 0 Left 0
WINDOW 39 0 0 Left 0
SYMATTR InstName V2
SYMATTR Value -14
TEXT 222 104 Left 2 !.tran 10m
