Version 4
SHEET 1 1784 680
WIRE 224 144 128 144
WIRE -160 160 -240 160
WIRE -64 160 -80 160
WIRE 16 160 -64 160
WIRE 32 160 16 160
WIRE -240 176 -240 160
WIRE -64 176 -64 160
WIRE 160 176 128 176
WIRE 896 176 768 176
WIRE 512 192 432 192
WIRE 608 192 592 192
WIRE 704 192 608 192
WIRE 432 208 432 192
WIRE 608 208 608 192
WIRE 832 208 768 208
WIRE -240 272 -240 256
WIRE -64 272 -64 240
WIRE -64 272 -240 272
WIRE 96 272 -64 272
WIRE 224 272 224 144
WIRE 224 272 96 272
WIRE 96 304 96 272
WIRE 432 304 432 288
WIRE 608 304 608 272
WIRE 608 304 432 304
WIRE 768 304 608 304
WIRE 896 304 896 176
WIRE 896 304 768 304
WIRE 768 336 768 304
FLAG 160 176 Vout
FLAG 96 304 0
FLAG 832 208 Vout_2
FLAG 768 336 0
SYMBOL AutoGenerated\\7812 64 160 R0
SYMATTR InstName U1
SYMBOL voltage -240 160 R0
WINDOW 123 24 124 Left 2
WINDOW 39 0 0 Left 0
SYMATTR Value2 AC 1
SYMATTR InstName V1
SYMATTR Value 14
SYMBOL res -64 144 R90
WINDOW 0 0 56 VBottom 2
WINDOW 3 32 56 VTop 2
SYMATTR InstName R1
SYMATTR Value 10k
SYMBOL cap -80 176 R0
SYMATTR InstName C1
SYMATTR Value 1.59n
SYMBOL AutoGenerated\\LM7912 736 192 R0
SYMATTR InstName U2
SYMBOL voltage 432 192 R0
WINDOW 123 24 124 Left 2
WINDOW 39 0 0 Left 0
SYMATTR Value2 AC 1
SYMATTR InstName V2
SYMATTR Value 14
SYMBOL res 608 176 R90
WINDOW 0 0 56 VBottom 2
WINDOW 3 32 56 VTop 2
SYMATTR InstName R2
SYMATTR Value 10k
SYMBOL cap 592 208 R0
SYMATTR InstName C2
SYMATTR Value 1.59n
TEXT -96 328 Left 2 ;.tran 5m
TEXT -96 376 Left 2 !.ac dec 100 1 1G
TEXT 32 -104 Left 2 ;Respuesta en Frecuencia de los reguladores
TEXT -176 40 Left 2 ;7812 (Regulador +)
TEXT 504 40 Left 2 ;LM7912 (Regulador -)
RECTANGLE Normal 272 432 -400 80 2
RECTANGLE Normal 960 432 320 80 2
