Version 4
SHEET 1 1784 680
WIRE 144 144 128 144
WIRE -160 160 -240 160
WIRE -64 160 -80 160
WIRE 16 160 -64 160
WIRE 32 160 16 160
WIRE -240 176 -240 160
WIRE -64 176 -64 160
WIRE 160 176 128 176
WIRE 208 176 160 176
WIRE 256 176 208 176
WIRE 800 176 768 176
WIRE 512 192 432 192
WIRE 608 192 592 192
WIRE 704 192 608 192
WIRE 432 208 432 192
WIRE 608 208 608 192
WIRE 784 208 768 208
WIRE 864 208 784 208
WIRE 960 208 864 208
WIRE 960 224 960 208
WIRE -240 272 -240 256
WIRE -64 272 -64 240
WIRE -64 272 -240 272
WIRE 96 272 -64 272
WIRE 144 272 144 144
WIRE 144 272 96 272
WIRE 208 272 208 240
WIRE 208 272 144 272
WIRE 256 272 256 256
WIRE 256 272 208 272
WIRE 96 304 96 272
WIRE 432 304 432 288
WIRE 608 304 608 272
WIRE 608 304 432 304
WIRE 768 304 608 304
WIRE 864 304 864 272
WIRE 864 304 768 304
WIRE 864 320 864 304
WIRE 960 320 960 304
WIRE 960 320 864 320
WIRE 768 336 768 304
FLAG 160 176 Vout
FLAG 96 304 0
FLAG 784 208 Vout_2
FLAG 768 336 0
FLAG 800 176 0
SYMBOL AutoGenerated\\7812 64 160 R0
SYMATTR InstName U1
SYMBOL voltage -240 160 R0
WINDOW 123 24 124 Left 2
WINDOW 39 0 0 Left 0
SYMATTR Value2 AC 1
SYMATTR InstName V1
SYMATTR Value 14
SYMBOL res -64 144 R90
WINDOW 0 0 56 VBottom 2
WINDOW 3 32 56 VTop 2
SYMATTR InstName R1
SYMATTR Value 50
SYMBOL cap -80 176 R0
SYMATTR InstName C1
SYMATTR Value 0.33µ
SYMBOL AutoGenerated\\LM7912 736 192 R0
SYMATTR InstName U2
SYMBOL voltage 432 192 R0
WINDOW 123 24 124 Left 2
WINDOW 39 0 0 Left 0
SYMATTR Value2 AC 1
SYMATTR InstName V2
SYMATTR Value -14
SYMBOL res 608 176 R90
WINDOW 0 0 56 VBottom 2
WINDOW 3 32 56 VTop 2
SYMATTR InstName R2
SYMATTR Value 50
SYMBOL cap 592 208 R0
SYMATTR InstName C2
SYMATTR Value 0.33µ
SYMBOL cap 192 176 R0
WINDOW 3 -46 50 Left 2
SYMATTR InstName C3
SYMATTR Value 0.22µ
SYMBOL res 240 160 R0
SYMATTR InstName R4
SYMATTR Value 1k
SYMBOL cap 848 208 R0
SYMATTR InstName C4
SYMATTR Value 0.22µ
SYMBOL res 944 208 R0
SYMATTR InstName R3
SYMATTR Value 1k
TEXT -96 328 Left 2 !;tran 5m
TEXT 32 -104 Left 2 ;Respuesta en Frecuencia de los reguladores
TEXT -176 40 Left 2 ;7812 (Regulador +)
TEXT 504 40 Left 2 ;LM7912 (Regulador -)
TEXT -152 384 Left 2 !.ac dec 100 1 1G
