Version 4
SHEET 1 880 680
WIRE -48 -176 -160 -176
WIRE 176 -176 -48 -176
WIRE 480 -176 176 -176
WIRE 528 -176 480 -176
WIRE 176 -96 176 -176
WIRE -160 -32 -160 -176
WIRE -48 0 -48 -176
WIRE 480 0 480 -176
WIRE 176 64 176 -16
WIRE 256 64 176 64
WIRE 368 64 336 64
WIRE 176 128 176 64
WIRE 240 128 176 128
WIRE 240 192 240 128
WIRE 240 192 208 192
WIRE -160 208 -160 48
WIRE -48 208 -48 64
WIRE -48 208 -160 208
WIRE 128 208 -48 208
WIRE 368 224 368 64
WIRE 368 224 208 224
WIRE 480 224 480 64
WIRE 480 224 368 224
WIRE 528 224 480 224
FLAG 528 -176 0
FLAG 528 224 Vout
SYMBOL AutoGenerated\\LM337 160 208 R0
SYMATTR InstName U1
SYMBOL res 160 -112 R0
SYMATTR InstName R2
SYMATTR Value 1032
SYMBOL res 352 48 R90
WINDOW 0 0 56 VBottom 2
WINDOW 3 32 56 VTop 2
SYMATTR InstName R1
SYMATTR Value 120
SYMBOL cap -64 0 R0
SYMATTR InstName C1
SYMATTR Value 1µ
SYMBOL cap 464 0 R0
SYMATTR InstName C2
SYMATTR Value 1µ
SYMBOL voltage -160 64 R180
WINDOW 0 24 96 Left 2
WINDOW 3 24 16 Left 2
WINDOW 123 0 0 Left 0
WINDOW 39 0 0 Left 0
SYMATTR InstName V2
SYMATTR Value -16
TEXT -50 256 Left 2 !.tran 10m
